     404
 i =       44, E =     -3160.0508622485
  O        -1.4625733031       -0.5099116014        0.1104635457
  O        -2.1797365030       -0.1948965646       -1.0995048312
  O        -2.3764907290        0.6017666851        0.1022441616
  O         4.8427747956        1.3766872639        0.3989493241
  O         4.5341592153        0.1181125815        1.0752227594
  O         3.4772481090        0.8828216766        0.3998618380
  O         0.1875891819        1.9903866509       -0.5949991482
  O        -0.0025827379        2.1780504834        0.8216012039
  O        -0.5812410410        3.1399528423       -0.1018273223
  O         0.6888188371       -1.3704760029       -1.3923732490
  O         0.5038051129       -0.2117528568       -2.2601298667
  O         1.6690298441       -0.3007686999       -1.3866708836
  O         0.7958446289       -1.2539912567        1.5830693810
  O         0.0909765014       -0.1992599705        2.2760458632
  O         1.3763769615        0.0843011335        1.6757661537
  O         0.0856706542       -5.1370021011       -1.6972771267
  O         1.0973743855       -5.2256063392       -0.6773913114
  O         0.3977278195       -3.9610948744       -0.8927838654
  O         0.5891717134       -4.5497388294        2.3748030124
  O        -0.7845595079       -4.9426978715        2.0756732785
  O        -0.2998700858       -3.6410674486        1.6739247030
  O        -2.4637283997       -4.4487300177       -0.6939861481
  O        -3.3646666229       -3.7496101623        0.2011683831
  O        -2.1764591689       -3.0690689361       -0.2951434300
  O        -2.4578316634       -1.7792726163        2.3547503588
  O        -2.9643292081       -3.0504300263        2.8681610094
  O        -3.3675100677       -1.7839605794        3.4712200375
  O        -2.1746930081        1.0841086432        2.8714769493
  O        -3.3550560806        1.7723730067        3.3682397200
  O        -2.6731718198        0.8021335768        4.2202398507
  O        -2.9950854083        2.0717170652       -2.2715366882
  O        -4.3391510483        1.4839915128       -2.2729846636
  O        -4.1487588353        2.8677574264       -2.6674124225
  O        -4.9391897374       -0.0107177277        1.7554127295
  O        -4.7432314145       -1.1719709370        0.8971230665
  O        -5.1378930450        0.0953034525        0.3108329183
  O        -4.0532724235       -2.8296286580       -2.5705213500
  O        -4.5430646381       -1.8829160696       -1.5874723451
  O        -4.0517529830       -1.3963259259       -2.8622157119
  O         3.7566500108        2.4691275916       -2.4705471537
  O         2.3812519077        2.0915223624       -2.1813173489
  O         2.6711765242        3.2440695837       -3.0514684049
  O         2.9572435707       -3.1643905314       -2.3777833687
  O         1.9728415817       -3.7756030984       -3.2558979704
  O         2.4752332804       -2.4583258815       -3.5554242335
  O         3.9555462220        2.9664252044        2.5676532373
  O         3.3536876799        1.7877578980        3.1592143450
  O         2.5948914878        3.0365689979        3.0661960757
  O        -0.0032024729        3.3550047223       -3.3603933544
  O        -1.1889106674        3.9501715965       -2.7665901672
  O         0.1078259791        4.5568194565       -2.5618267364
  O         3.9462399584       -1.9690321200        2.8695511652
  O         2.6723505901       -2.4687472742        3.3579184154
  O         3.0686062076       -1.1018757428        3.6509642024
  O         4.0515830773       -3.0655230660        0.2962811117
  O         3.0661615502       -3.9576156267        0.8919673015
  O         2.6631275663       -2.6568832242        0.3925378692
  O         0.0039830261        4.2430351571        2.7717256189
  O        -1.3498576091        3.9689735170        3.2344669584
  O        -1.1057945886        4.8396977639        2.0780087083
  O        -0.3213800252       -2.5705597677       -4.0426569459
  O        -1.1815257103       -3.3557946379       -3.1641860760
  O        -1.7473738475       -2.2770998056       -3.9492155375
  O         4.5469324622       -1.0829461621       -1.5732090560
  O         4.4527628652       -0.6838203189       -2.9608605100
  O         5.1274499288        0.1838642480       -1.9882434209
  O        -3.2675761440        3.3514853837        1.3550390418
  O        -4.0447977188        2.6788369604        0.3123080697
  O        -3.2597334477        3.8556809290       -0.0041304822
  O         3.0663764319        3.7505653464        0.1018498239
  O         1.9786308893        4.3477817761        0.8532416955
  O         2.0709776678        4.5455923494       -0.5888746428
  O        -1.3801829488        0.0929873231       -5.1435253257
  O        -2.4816639023        0.3913020418       -4.2465887252
  O        -1.3707490350        1.3005847613       -4.3428894410
  O         1.2959962564        0.9825491094        4.7446730067
  O        -0.0989528264        1.0885630869        5.1374424246
  O         0.4841528377        2.0720629978        4.2470641969
  O         2.4759348112        0.2001712761       -4.4419058144
  O         1.2694137634       -0.3143114336       -5.0463028585
  O         1.3813662966        1.0981652016       -4.7420340978
  O         0.5060182556       -1.6859027315        4.8410733574
  O        -0.3969205638       -2.6605793682        4.2509511399
  O        -0.9027401579       -1.3859114266        4.7388805469
  C         0.8950930645       -0.6782630435       -8.5624511921
  C        -0.4618591275       -1.1248378190       -8.5447739909
  C        -1.3064560856        0.0149286679       -8.5391389055
  C        -0.4733914769        1.1686418438       -8.5321766227
  C         0.8862939985        0.7395818732       -8.5551896281
  C         7.7493765957       -1.0927037205       -3.5766143849
  C         7.1379206884       -0.6560318937       -4.7847154694
  C         7.1209183887        0.7618053816       -4.7695281949
  C         7.7351452258        1.2023520872       -3.5576056958
  C         8.1314572878        0.0581344129       -2.8252345092
  C         1.3125361511       -7.7375219560       -3.5508626113
  C         1.5272601409       -7.0166006860       -4.7548250607
  C         2.8835076782       -6.5751906150       -4.7731486959
  C         3.4959745446       -7.0090745226       -3.5675156011
  C         2.5294211566       -7.7304106555       -2.8128178083
  C        -7.0208849953       -3.6910965097       -3.4617152161
  C        -6.2750527764       -3.6783514626       -4.6804072467
  C        -5.4264736511       -4.8185104029       -4.6911261753
  C        -5.6341291994       -5.5279181192       -3.4789137788
  C        -6.6237569719       -4.8326883556       -2.7218412779
  C        -5.7011735458        5.4575606844       -3.4195071029
  C        -5.4805952571        4.7576794461       -4.6388110673
  C        -6.3139461185        3.6050633046       -4.6399392778
  C        -7.0505956726        3.5932210528       -3.4190898309
  C        -6.6723609336        4.7409419272       -2.6666446236
  C         3.4111399931        7.0608132433       -3.4902962482
  C         2.7955612925        6.6181396658       -4.6970160463
  C         1.4401122856        7.0457744333       -4.6813418979
  C         1.2158402400        7.7488395267       -3.4649065721
  C         2.4337604520        7.7598241548       -2.7292129372
  C        -0.9298654638        0.6555593270        8.5152622811
  C        -0.9210084159       -0.7639147982        8.5096779641
  C         0.4354667306       -1.1942783197        8.4946685893
  C         1.2641508945       -0.0362476183        8.4938418372
  C         0.4236164947        1.1066958226        8.5092251325
  C        -8.1758832999       -0.0794258502        2.7787868736
  C        -7.7786428181       -1.2233149805        3.5129335398
  C        -7.1530202749       -0.7838110284        4.7209428066
  C        -7.1651910942        0.6328731199        4.7310100850
  C        -7.7859380661        1.0717839565        3.5279794629
  C        -2.4675954101       -7.7872915319        2.6809957101
  C        -1.2525914508       -7.7876221178        3.4221129150
  C        -1.4780105010       -7.0791379145        4.6366315290
  C        -2.8317215170       -6.6428309465        4.6475330171
  C        -3.4441346959       -7.0806483016        3.4392694088
  C         6.6222251820       -4.7579895325        2.6160480582
  C         6.9989367535       -3.6129434171        3.3696271164
  C         6.2654337289       -3.6260529817        4.5919408441
  C         5.4308327643       -4.7763548683        4.5866011859
  C         5.6526332408       -5.4765805202        3.3682147225
  C         6.5840457848        4.8180639147        2.6772044732
  C         5.6052003260        5.5208588873        3.4420945692
  C         5.3938905752        4.8108072238        4.6560246508
  C         6.2274264612        3.6612746132        4.6369315181
  C         6.9654201557        3.6690540690        3.4133519272
  C        -2.5600346323        7.7055898082        2.7686985709
  C        -3.5308784868        6.9877193417        3.5227478475
  C        -2.9150082390        6.5529413827        4.7273884949
  C        -1.5620425846        7.0090409296        4.7219001661
  C        -1.3451367275        7.7211669904        3.5112621986
  C         1.5928342041       -2.7132177001       -7.4430222784
  C         2.2661696394       -4.7017005186       -6.1835720473
  C         5.8483829087       -2.7076856896       -4.8971622385
  C         4.4224551651       -4.7036611568       -4.8946616068
  C         5.1646205914       -0.6771171877       -6.1974698195
  C         3.0657704533       -0.6815008036       -7.4736267058
  C         3.8561053962       -2.7879398452       -6.3941018704
  C         4.7434414240       -3.4258052263       -5.4475114673
  C         3.2544131867       -5.3833366235       -5.3890386152
  C         4.0581207448       -1.4035892065       -6.7392940980
  C         1.9072052179       -1.3987136682       -7.9328429910
  C         2.5963027549       -3.4266475441       -6.7260049646
  C         6.1203158360       -1.3905296959       -5.3979701492
  C         0.2181794208       -3.1653772902       -7.4254876848
  C         0.8887903966       -5.1456013964       -6.1592728299
  C        -3.1566615569       -5.6730876582       -4.8086556781
  C        -0.8179988197       -6.4123760147       -4.8259752132
  C        -3.8477916247       -3.6545940968       -6.1177433161
  C        -2.1759830024       -2.4078173248       -7.4080210886
  C        -1.5329569888       -4.5584837058       -6.3300216500
  C        -1.8479974024       -5.5858755362       -5.3706615633
  C         0.5132737865       -6.2669015070       -5.3427094341
  C        -2.5318136718       -3.5760897891       -6.6702773978
  C        -0.8277146686       -2.2980623798       -7.8945282547
  C        -0.1477980327       -4.3269924737       -6.6924506246
  C        -4.1725704097       -4.7906352180       -5.3069385566
  C        -3.0404019254       -1.2508880385       -7.4097984768
  C        -4.7093713688       -2.4934377926       -6.1062612521
  C        -6.4433427077        1.1867979187       -4.7515489981
  C        -6.4435149796       -1.2601979094       -4.7746871397
  C        -4.7344951688        2.4581193408       -6.0806883381
  C        -3.0600891896        1.2533415374       -7.4075341866
  C        -4.8994949633       -0.0179830140       -6.2963931852
  C        -5.9734531440       -0.0321763776       -5.3217149460
  C        -5.8931167424       -2.4844958205       -5.2877380033
  C        -4.2695329866        1.2342431627       -6.6480500712
  C        -2.5481999252        0.0053399874       -7.8996154029
  C        -4.2554758054       -1.2566047246       -6.6540001322
  C        -5.9118817714        2.4231015954       -5.2555904464
  C        -2.2071688238        2.4221734646       -7.3926600285
  C        -3.8873021090        3.6266685975       -6.0754458248
  C        -0.9018278315        6.4277484444       -4.7744588016
  C        -3.2259761927        5.6467960152       -4.7514340249
  C         0.8223018756        5.1844709852       -6.1055083883
  C         0.1817639537        3.2054310364       -7.3970915167
  C        -1.5851614820        4.5624328535       -6.2819257235
  C        -1.9177204666        5.5875044913       -5.3200560476
  C        -4.2297487379        4.7505738170       -5.2531959568
  C        -0.2025922520        4.3513239834       -6.6446948062
  C        -0.8567017641        2.3343886575       -7.8769549016
  C        -2.5730419977        3.5695187313       -6.6318879777
  C         0.4332013264        6.2991841710       -5.2882164798
  C         3.0586894982        0.7631690596       -7.4693787495
  C         5.1516886156        0.7688606739       -6.1857031483
  C         4.3507241640        4.7646124794       -4.8290039483
  C         5.8063524044        2.7968984605       -4.8557621111
  C         2.1982041616        4.7472575767       -6.1206563229
  C         1.5628478792        2.7727112847       -7.4222084286
  C         3.8158426553        2.8616739723       -6.3554841056
  C         4.6956370645        3.5006073293       -5.3976189946
  C         6.0921628919        1.4848575074       -5.3663561216
  C         2.5536984966        3.4849045901       -6.6844733088
  C         1.8938620820        1.4700048337       -7.9229704075
  C         4.0429810703        1.4877515447       -6.7249871806
  C         3.1736313045        5.4306973372       -5.3160171967
  C         6.4682819546       -3.1514252925       -3.6655961168
  C         5.0414423674       -5.1435464362       -3.6647477018
  C         5.7031286123       -5.6462254129        0.5547316647
  C         4.6452546618       -6.3973469453       -1.5250874895
  C         7.1525977358       -3.6034680865        0.5516753753
  C         7.5360138938       -2.3731244127       -1.5299925732
  C         6.2985946058       -4.5335795507       -1.5988140758
  C         5.5992399936       -5.5648605072       -0.8677303940
  C         4.4920239085       -6.2579172048       -2.9467631255
  C         7.0510371192       -3.5368997269       -0.8711702446
  C         7.3549743613       -2.2722218980       -2.9525741373
  C         5.9895623611       -4.3125344877       -2.9919598692
  C         6.5977713051       -4.7438372231        1.2230613813
  C         7.5042480248        2.4653618127       -1.4981801475
  C         7.1148789914        3.6817222563        0.5991231855
  C         4.5758408582        6.4601385810       -1.4511619601
  C         5.6417289098        5.7054195975        0.6209435469
  C         4.9718786331        5.2138036238       -3.6006484075
  C         6.4258517874        3.2445992680       -3.6239303594
  C         6.2418199198        4.6101995441       -1.5400839140
  C         5.5355525390        5.6322808849       -0.7989473444
  C         6.5470808771        4.8105010141        1.2813996578
  C         5.9318913814        4.3932253869       -2.9401629048
  C         7.3231837759        2.3724281928       -2.9207649641
  C         7.0027251056        3.6227640119       -0.8250208067
  C         4.4154920668        6.3229518627       -2.8738825129
  C         7.9144165088       -1.2033716418       -0.7659196778
  C         7.5199269704       -2.4358185562        1.3142141981
  C         7.1142956994        1.2498158649        3.4734325855
  C         7.1240639745       -1.1952712439        3.4614830841
  C         7.5063009615        2.5140352086        1.3482168498
  C         7.9026040684        1.2980918366       -0.7508851693
  C         7.7656322939        0.0402206464        1.3913881165
  C         7.3920765486        0.0317970192        2.7903672753
  C         7.3354555488       -2.4199901093        2.7407722018
  C         7.7903501450        1.2847238156        0.6755635464
  C         8.1151103933        0.0514011582       -1.4300804434
  C         7.7931995969       -1.2021311706        0.6547867836
  C         7.3182343012        2.4831230376        2.7714257282
  C        -1.0361957160       -7.1484438339       -3.6038577657
  C        -3.3702916180       -6.3980674146       -3.5778074434
  C        -3.6076169285       -7.1833315226        0.6303766020
  C        -4.6723607777       -6.4242050703       -1.4402453553
  C        -1.2179531627       -7.9600871267        0.6085137461
  C         0.0506070726       -7.9629461698       -1.4890386259
  C        -2.3843541361       -7.4198481294       -1.5288289816
  C        -3.5793666969       -7.0689386342       -0.7911667398
  C        -4.6028357740       -6.2304285880       -2.8604695110
  C        -1.2009839798       -7.8438181898       -0.8130891788
  C         0.0748600555       -7.7390377882       -2.9096456262
  C        -2.2834019710       -7.0451950358       -2.9168823024
  C        -2.4693752681       -7.7622814652        1.2888043412
  C         1.2896326271       -7.9601194030       -0.7375155876
  C         0.0161928256       -7.9640729322        1.3600657636
  C         3.4108342216       -6.3865317945        3.4636930590
  C         1.0932569330       -7.1776518833        3.4884905607
  C         4.7185296335       -6.3772257738        1.3203020927
  C         3.6647009515       -7.1346743537       -0.7586834622
  C         2.4483051168       -7.4090317721        1.4016390283
  C         2.3377737199       -7.0493233112        2.7985948441
  C        -0.0129819953       -7.7668403355        2.7838954893
  C         3.6336988161       -7.0332729957        0.6638774356
  C         2.5365700628       -7.7288476317       -1.4200663716
  C         1.2704696629       -7.8455689420        0.6859546321
  C         4.6391067891       -6.1964660089        2.7438449040
  C        -7.1984705741       -1.2729614350       -3.5364035610
  C        -7.1927017653        1.1753569055       -3.5147479538
  C        -7.9832405983        1.1854266149        0.7139270070
  C        -7.5889488079        2.4180831450       -1.3660023877
  C        -7.9669395293       -1.3191862816        0.7014022332
  C        -7.5759094308       -2.5359569952       -1.3990990507
  C        -7.8388934421       -0.0621968342       -1.4459879310
  C        -7.8688994272        1.1834941623       -0.7079256340
  C        -7.4005377589        2.4012719625       -2.7919940277
  C        -7.8598810183       -1.3060560291       -0.7258033205
  C        -7.3943895355       -2.5066891611       -2.8269512327
  C        -7.4701571115       -0.0551056131       -2.8487931919
  C        -8.1744524556       -0.0717074711        1.3818330266
  C        -7.1665629544       -3.6979660921       -0.6475939983
  C        -7.5575648096       -2.4830894577        1.4514494253
  C        -4.9973007034       -5.2225940359        3.5444589973
  C        -6.4538445509       -3.2560973904        3.5679082442
  C        -4.5959882791       -6.4631003037        1.3987072504
  C        -5.6692490847       -5.7109190234       -0.6706007546
  C        -6.2719067347       -4.6160950703        1.4869020254
  C        -5.9548078207       -4.3986666510        2.8824364834
  C        -7.3641753354       -2.3895611370        2.8717530478
  C        -5.5590251608       -5.6354215300        0.7481176193
  C        -6.5878000690       -4.8232946694       -1.3275612241
  C        -7.0475444083       -3.6360709558        0.7768315327
  C        -4.4401585095       -6.3320719624        2.8213601723
  C        -3.4502523830        6.3540113461       -3.5139281216
  C        -1.1275754780        7.1367214549       -3.5369991204
  C        -1.3121457948        7.8799615238        0.6962490272
  C        -0.0422445340        7.8935433711       -1.3999702104
  C        -3.6930499058        7.0945003728        0.7106215929
  C        -4.7500869030        6.3387256163       -1.3686405782
  C        -2.4709250772        7.3433257656       -1.4462868604
  C        -1.2917048708        7.7626180526       -0.7243835404
  C        -0.0190054952        7.7129542596       -2.8258767784
  C        -3.6593913509        6.9825134851       -0.7101875264
  C        -4.6765135370        6.1628859161       -2.7908213357
  C        -2.3686468991        7.0031717229       -2.8473781764
  C        -2.5616862883        7.6792760764        1.3761632071
  C        -7.2080214283        3.5850233282       -0.6035545694
  C        -7.5901518604        2.3548984391        1.4770338741
  C        -5.0620493740        5.1114231775        3.6052735730
  C        -6.4938639230        3.1223720858        3.6054796901
  C        -4.6838698720        6.3726820613        1.4755828672
  C        -5.7416292397        5.6200568509       -0.6045972408
  C        -6.3403018514        4.5123676804        1.5465384098
  C        -6.0171172275        4.2840766827        2.9351109123
  C        -7.3923365995        2.2491588408        2.8979604092
  C        -5.6407004639        5.5429282168        0.8165832749
  C        -6.6421395571        4.7227991974       -1.2737510504
  C        -7.1033963795        3.5188744402        0.8183258341
  C        -4.5241799469        6.2345129068        2.8953879603
  C         3.5885516736        7.1775645729       -0.6776495440
  C         4.6485802307        6.4185137044        1.3958029860
  C         1.0097408632        7.1389333242        3.5714124819
  C         3.3452478998        6.3928525849        3.5444381778
  C        -0.0784002213        7.8966170398        1.4480835029
  C         1.1918395603        7.9090876016       -0.6519442770
  C         2.3644141849        7.4015364623        1.4889403336
  C         2.2589476006        7.0354127897        2.8813779884
  C         4.5752963914        6.2236336340        2.8199535262
  C         1.1754197646        7.7956904250        0.7722077585
  C         2.4440776132        7.7386592415       -1.3363807895
  C         3.5601414327        7.0632405315        0.7464775975
  C        -0.1046098376        7.7104475533        2.8720552998
  C        -3.0812104281        0.6578337185        7.4037126986
  C        -5.1815420818        0.6529078637        6.1316102351
  C        -4.4326642189        4.6651754128        4.8256538652
  C        -5.8639073602        2.6759061655        4.8301936391
  C        -2.2887102219        4.6795796343        6.1345922357
  C        -1.6240829586        2.7016866790        7.4117515204
  C        -3.8732460409        2.7634841589        6.3333934717
  C        -4.7552587697        3.3907943490        5.3798644135
  C        -6.1377814893        1.3631870996        5.3327254401
  C        -2.6205029465        3.4066892829        6.6792580536
  C        -1.9358927849        1.3799118564        7.8832147151
  C        -4.0764579349        1.3799314874        6.6759695495
  C        -3.2720592635        5.3496856879        5.3278793645
  C        -3.0730034828       -0.7855865564        7.3985268226
  C        -5.1702688407       -0.7908245876        6.1225761258
  C        -4.3785480449       -4.7828997884        4.7743948783
  C        -5.8353529215       -2.8173247141        4.8042698322
  C        -2.2345887434       -4.7818922783        6.0835698717
  C        -1.5946107728       -2.8118585109        7.3953777806
  C        -3.8420201980       -2.8881081102        6.3077999466
  C        -4.7257805784       -3.5240938017        5.3482280692
  C        -6.1206255953       -1.5056113473        5.3151094844
  C        -2.5842517010       -3.5188231288        6.6472784151
  C        -1.9223914243       -1.4983302112        7.8758967388
  C        -4.0601512355       -1.5096330053        6.6598705193
  C        -3.2059631532       -5.4532636841        5.2641129347
  C        -0.2155476636       -3.2547485785        7.3877742307
  C        -0.8601198591       -5.2244519939        6.0742984946
  C         3.1811128010       -5.6688475933        4.6979723140
  C         0.8626874538       -6.4556761651        4.7229859573
  C         3.8474866325       -3.6542821173        6.0385748817
  C         2.1659194342       -2.4543210541        7.3588399692
  C         1.5485141660       -4.6006244998        6.2488105997
  C         1.8762465183       -5.6129497919        5.2691937175
  C        -0.4721909784       -6.3298212624        5.2421666787
  C         2.5359457440       -3.6048212501        6.6024258379
  C         0.8187313847       -2.3708804163        7.8554094454
  C         0.1675831438       -4.4000420053        6.6287603416
  C         4.1835875934       -4.7735631836        5.2067327614
  C         3.0058541694       -1.2747913938        7.3498770552
  C         4.6915450065       -2.4824497244        6.0414022173
  C         6.3684203032        1.2402617437        4.7142294574
  C         6.3886002868       -1.2073411966        4.7051899034
  C         4.6577218538        2.4787644312        6.0631381180
  C         2.9926757096        1.2361938280        7.3682880587
  C         4.8391293352       -0.0003133961        6.2421575603
  C         5.9083498501        0.0116187572        5.2655590171
  C         5.8669836282       -2.4466795800        5.2155238849
  C         4.2027645668        1.2402457784        6.6078186609
  C         2.4949420775       -0.0243006816        7.8389274140
  C         4.2192340958       -1.2562590562        6.5986688898
  C         5.8327496149        2.4672936542        5.2359003154
  C         2.1395651925        2.4012148810        7.3867669016
  C         3.8078916901        3.6460195602        6.0830744306
  C         0.7902481706        6.4161184283        4.8034558691
  C         3.1273857289        5.6681327104        4.7775743167
  C        -0.9178411143        5.1418085336        6.1318697837
  C        -0.2523764144        3.1638061232        7.4122323759
  C         1.4985296156        4.5541456087        6.3045884277
  C         1.8166911315        5.5829410970        5.3434521005
  C         4.1413958094        4.7846460510        5.2755245317
  C         0.1145514237        4.3244670606        6.6729498800
  C         0.7930364802        2.2922581810        7.8788449133
  C         2.4934539182        3.5682828114        6.6414412601
  C        -0.5443996130        6.2693881489        5.3197264080