      63
 i =       14, E =      -130.0306450850
  C         2.3130884564        0.6318689511        2.7411403588
  C         3.2404910154        0.1889849593        1.6721525713
  C         1.4046789450       -0.2994438863        3.3279193187
  C         3.2276917996       -1.1691302969        1.2305384251
  C         3.3332211678       -1.4808189157       -0.2166202635
  C         3.3584339403        1.2896816285        0.6856281332
  C         3.4576187263        0.9906968950       -0.7064243794
  C         3.4444533769       -0.4198143861       -1.1668832526
  C        -0.4288865198        1.4296457780        3.2995942811
  C         0.5148297765        2.3993640417        2.6915976753
  C         0.0073343391        0.1069060305        3.6123312655
  C         1.8596141550        2.0063587703        2.4166050516
  C         2.5055140689        2.4129211109        1.1453869446
  C        -0.2367317798        3.2154466334        1.7061998961
  C         0.3857095119        3.6099475064        0.4819144573
  C         1.7829807310        3.1982603120        0.1965303239
  C        -2.1598106594       -0.8468623908        2.7452003394
  C        -2.6113713107        0.5272961537        2.4179522025
  C        -0.8735159693       -1.0520412104        3.3298157055
  C        -1.7632158084        1.6435634866        2.6903506926
  C        -1.6443891732        2.7458668187        1.7051955713
  C        -3.3743164903        0.4681072674        1.1479355419
  C        -3.2577934731        1.5280701686        0.1985191772
  C        -2.3774966695        2.6879935475        0.4818097201
  C        -0.4836827153       -3.0483269661        1.8417501302
  C        -1.8203684315       -2.8359157511        1.2339005077
  C        -0.0198372321       -2.1740083237        2.8700110293
  C        -2.6446889350       -1.7569078823        1.6778538041
  C        -3.3967355260       -0.9432676560        0.6899279337
  C        -1.7173944540       -3.1439319930       -0.2135561654
  C        -2.4427754262       -2.3631058203       -1.1639113402
  C        -3.2986646885       -1.2411983914       -0.7039514292
  C         2.2821205773       -2.1357851725        1.8403085756
  C         1.8007511117       -3.0436426278        0.7710991207
  C         1.3883362167       -1.7090744874        2.8687267327
  C         0.4439737860       -3.4895706325        0.7720202471
  C        -0.3185244820       -3.5482242622       -0.4979618244
  C         2.4503467055       -2.6399820493       -0.5003834513
  C         1.7147432396       -2.6948025611       -1.7235179939
  C         0.3050330832       -3.1574489359       -1.7211580904
  C        -2.2468824538       -0.5810005502       -2.7586397171
  C        -1.7931131225       -1.9545001420       -2.4333914534
  C        -0.4468627999       -2.3443891159       -2.7068898361
  C        -1.3376284584        0.3503864812       -3.3450167971
  C        -2.2126627007        2.1866104646       -1.8575264250
  C        -3.1562862229        1.2183177992       -1.2475360004
  C        -3.1754958571       -0.1391448069       -1.6900450542
  C        -1.3204506375        1.7604884640       -2.8866142768
  C         0.5500376446        3.1031777348       -1.8597615232
  C        -0.3771584743        3.5495368420       -0.7902947609
  C        -1.7320613624        3.0967902366       -0.7894162272
  C         0.0872404825        2.2264441853       -2.8873930568
  C         2.2254321696        0.8962115983       -2.7614816685
  C         2.7052097418        1.8039385707       -1.6918640472
  C         1.8843176889        2.8860343321       -1.2498990152
  C         0.9401803160        1.1034975854       -3.3466478123
  C         0.4971802129       -1.3778161609       -3.3178829350
  C         1.8337491604       -1.5942913189       -2.7114999130
  C         2.6819154722       -0.4781523003       -2.4383417625
  C         0.0596231369       -0.0554031039       -3.6298805267
  O        -0.6782050155       -0.3814199412        0.0997304865
  O         0.7179384703       -0.3878883043       -0.2293495540
  O         0.0625956583        0.8467211465        0.0924019269