     216
 i =       26, E =     -1597.8451379023
  O         2.9538774359       -1.2862473749        1.6764519393
  O         2.3670582885       -2.3639579608        0.8938637687
  O         1.5057465160       -1.3931815152        1.5779980064
  O        -0.4899985190       -0.7801405659        3.2625555427
  O        -0.6665096147        0.6617587464        3.1663840006
  O         0.6653146906        0.1020941383        3.3567056513
  O         3.0439400484        1.2858077438        1.5788385505
  O         1.5996962119        1.4838990340        1.5791992754
  O         2.4676812849        2.3653535497        0.7940169536
  O        -0.3974666530       -3.2680470387        1.3863937523
  O        -1.7634275582       -2.7722925896        1.5779281957
  O        -0.7840559431       -1.9638131134        0.8864090309
  O        -0.3015873652        3.3503601398        1.2816578030
  O        -0.6906478766        1.9888030011        0.8946029207
  O        -1.6452654449        2.8505527670        1.5721307455
  O         3.1593435448       -0.7818437140       -1.2835022831
  O         2.0835802202       -0.0024451003       -0.6916251569
  O         3.1595270756        0.6814614410       -1.3839997242
  O        -2.1926112664        0.0096305671        0.8047892246
  O        -2.9555769499       -0.6532911679        1.8680745327
  O        -3.0614937130        0.7883186548        1.6765089739
  O         1.4824696450        2.4803745932       -2.0708600382
  O         0.5921122787        1.8848904882       -1.0881863219
  O         0.7903648925        3.3283499608       -1.0915989166
  O         1.3846407805       -2.5795477459       -2.0701713432
  O         0.5960263170       -3.3394939109       -1.0916820677
  O         0.5881201136       -1.8809422434       -1.0843884400
  O        -1.8901128873        1.1947794863       -1.6718306244
  O        -2.9443822132        1.8754608140       -0.8985271265
  O        -1.8892102205        2.6397426204       -1.5720727498
  O         0.9942514468       -0.1064484898       -3.1634001787
  O        -0.2888372493       -0.7640458514       -3.3614434150
  O        -0.2077110547        0.6874931546       -3.2644849245
  O        -1.9820506357       -2.6161777389       -1.4819452571
  O        -2.9641365680       -1.7841287864       -0.7924405880
  O        -1.9759398658       -1.1821459278       -1.6788363079
  C        -1.1227814342       -0.6174286838        6.1985091859
  C        -1.0962760540        0.8100276450        6.1779347041
  C         0.2721578937        1.2249633705        6.1939116938
  C         1.0938495073        0.0573548440        6.2321451957
  C         0.2292872919       -1.0814279619        6.2270162404
  C        -2.1384481427       -1.3447079983        5.5698882267
  C        -1.8249619096       -2.6817569830        5.1086904649
  C        -2.0856293644        1.5564101738        5.5320582851
  C        -3.2463812177        0.8479881598        5.0359227521
  C         0.6874908245        2.3895146517        5.5474390328
  C        -0.3317837056        3.2795233301        5.0360757386
  C         2.3566590380        0.0286894387        5.6321688499
  C         2.8983782425        1.2760269814        5.1349959852
  C         0.6037979668       -2.2784196202        5.6156047164
  C         1.9707728099       -2.4012454813        5.1537057191
  C         3.7000252719        3.5584996053        3.6706882512
  C         3.9742295845        4.2656669196        2.4615791718
  C         4.9707276898        3.5329184253        1.7451925221
  C         5.3202437000        2.3791131965        2.5202901605
  C         4.5345545859        2.3990379511        3.7169314224
  C         2.4355814912        3.5804125068        4.2592065706
  C         2.0583087847        2.4594813032        5.0907587131
  C         2.9939802477        5.0214613109        1.8105298126
  C         1.7361824998        5.2284678264        2.4974732963
  C         4.9986448931        3.5177992003        0.3466024344
  C         4.1166362891        4.4312176903       -0.3576346737
  C         5.7005503853        1.1749564951        1.9158995527
  C         5.9202230308        1.1796606363        0.4830145498
  C         4.1114429215        1.2244817783        4.3431739408
  C         4.6502934891       -0.0297633302        3.8598782969
  C         3.5731444550       -3.5887009112        3.7602654523
  C         4.4448215898       -2.4569969380        3.7741176043
  C         5.2260754079       -2.4866556809        2.5757933827
  C         4.8400274840       -3.6463182785        1.8311777968
  C         3.8250096647       -4.3325588929        2.5679481517
  C         2.3083698231       -3.5543253447        4.3500815358
  C         1.2982517059       -4.4541411928        3.8410503316
  C         4.0654747333       -1.2544891742        4.3717019950
  C         2.8535321934       -1.2473555155        5.1652751827
  C         5.6481999962       -1.3107560674        1.9442733008
  C         5.4505445927       -0.0562379992        2.6443327766
  C         4.8652387919       -3.6637416396        0.4340771167
  C         5.4838757773       -2.5422436463       -0.2426063364
  C         2.8169028518       -5.0643290877        1.9352242454
  C         2.9283657894       -5.2692584242        0.5063895240
  C        -3.0120461052       -5.0089410707        2.4437883364
  C        -2.4154304360       -4.5528744387        3.6629763744
  C        -1.0645908122       -5.0111916046        3.6894615569
  C        -0.8190329417       -5.7472723318        2.4891498358
  C        -2.0226315872       -5.7429799957        1.7173103446
  C        -4.0149612056       -4.2801095771        1.7956904332
  C        -4.1387681004       -4.4421362989        0.3602429813
  C        -2.7990273220       -3.3565636603        4.2755680370
  C        -3.9549863706       -2.6710849525        3.7402236919
  C        -0.0551674192       -4.2830558141        4.3224129768
  C        -0.4472559523       -3.1473543806        5.1282383566
  C         0.4455928254       -5.7933731192        1.8947466436
  C         1.5541295276       -5.2156436188        2.6279773297
  C        -1.9977379374       -5.7683330557        0.3217787188
  C        -0.7213971181       -6.0052686859       -0.3231432204
  C        -6.1232480215        0.1216568003        1.5701695884
  C        -5.7495425635        1.2852144450        2.3112137192
  C        -5.1688047196        0.8470042650        3.5425230802
  C        -5.1966354367       -0.5826477292        3.5618885164
  C        -5.7920051437       -1.0333387301        2.3422531538
  C        -6.0907398469        0.1035746389        0.1765498879
  C        -5.9101203569       -1.1779679059       -0.4757659732
  C        -5.3453874374        2.4673982786        1.6842436402
  C        -5.4954290932        2.5508493478        0.2468135823
  C        -4.1627148914        1.5764016168        4.1820104678
  C        -3.8559919096        2.8954430934        3.6671949438
  C        -4.2180544891       -1.3293287365        4.2239996405
  C        -3.2722453950       -0.6082922852        5.0545104108
  C        -5.4296124010       -2.2447859515        1.7445717472
  C        -4.5624502393       -3.1322451481        2.4929005863
  C        -2.8361998456        5.1666822012        2.3184047752
  C        -1.8230036246        5.8508332303        1.5770767615
  C        -0.6193006529        5.8369630547        2.3506291727
  C        -0.8883003425        5.1363847802        3.5663050799
  C        -2.2565192579        4.7259472067        3.5515354877
  C        -3.8599741855        4.4533940751        1.6865670491
  C        -4.4488958110        3.3446027442        2.4110013645
  C        -1.7977426805        5.8397548582        0.1815242578
  C        -2.9444163892        5.2785733626       -0.5069111720
  C         0.6457697381        5.8261925952        1.7536849809
  C         0.7112150078        6.0140766178        0.3187141222
  C         0.0981269222        4.3863320525        4.2095562677
  C         1.4574386138        4.5031082755        3.7274747224
  C        -2.6791531189        3.5561230079        4.1889691066
  C        -1.7257448224        2.8665566420        5.0335157976
  C         1.1121231880        0.6148347317       -6.1931438803
  C        -0.2368954560        1.0817166809       -6.2271828000
  C        -1.0949413993       -0.0618600768       -6.2291035540
  C        -0.2783193640       -1.2359495529       -6.2114074387
  C         1.0879179034       -0.8143618268       -6.1815381144
  C         2.1241025171        1.3415410423       -5.5605769984
  C         3.2619486313        0.6067321993       -5.0492431296
  C        -0.6135654987        2.2856794981       -5.6262132521
  C         0.4339644158        3.1519396946       -5.1332824439
  C        -2.3479442302       -0.0308366027       -5.6147781017
  C        -2.8459151871        1.2473008116       -5.1513956120
  C        -0.6961180579       -2.4120032612       -5.5806663103
  C        -2.0646659289       -2.4765828887       -5.1088191504
  C         2.0758526697       -1.5587851337       -5.5309513523
  C         1.7169995316       -2.8735700959       -5.0421898910
  C        -4.5159755408       -2.3936067065       -3.6962699074
  C        -5.3036269038       -2.3736881427       -2.5057476031
  C        -4.9808830178       -3.5404320938       -1.7434318045
  C        -3.9946525734       -4.2819723537       -2.4685074624
  C        -3.7096489843       -3.5714636156       -3.6765609046
  C        -4.0890511411       -1.2215898194       -4.3212276889
  C        -2.8888896392       -1.2807724289       -5.1255618753
  C        -5.6735545770       -1.1711169923       -1.9014450144
  C        -5.4216328650        0.0579728299       -2.6258021307
  C        -5.0173477936       -3.5287356201       -0.3439423923
  C        -5.5831925064       -2.3605590660        0.3082014491
  C        -3.0115497399       -5.0347286043       -1.8163068681
  C        -3.1278463996       -5.1911612663       -0.3795070388
  C        -2.4490524704       -3.6004783832       -4.2768126959
  C        -1.4698251044       -4.5219199990       -3.7417789196
  C         2.2484807614       -4.7262727991       -3.5534060058
  C         0.8792580843       -5.1412498029       -3.5713951538
  C         0.6076931436       -5.8369097727       -2.3545336863
  C         1.8094740108       -5.8432835329       -1.5782652927
  C         2.8217027205       -5.1571987832       -2.3170267457
  C         2.6732397627       -3.5587631034       -4.1945561521
  C         3.8465636175       -2.8921074853       -3.6653988861
  C        -0.1071958673       -4.4015684935       -4.2248476701
  C         0.3232727420       -3.2979885289       -5.0599202789
  C        -0.6575303163       -5.8262287519       -1.7583327958
  C        -1.7510280759       -5.2421995075       -2.5069833630
  C         1.7869454499       -5.8389948404       -0.1822888622
  C         0.5048402877       -6.0173360830        0.4666145681
  C         3.8377706021       -4.4377834494       -1.6835958901
  C         3.9549312664       -4.5637060800       -0.2466125068
  C         5.7819868140        1.0333749129       -2.3397391987
  C         5.1827719007        0.5830178994       -3.5570962000
  C         5.1549667835       -0.8444093345       -3.5369310040
  C         5.7359999447       -1.2806175981       -2.3066465070
  C         6.1197173145       -0.1195834217       -1.5661905103
  C         5.4195400654        2.2442136905       -1.7412534987
  C         5.5747607659        2.3562708641       -0.3037845951
  C         4.2046909812        1.3270514104       -4.2185091911
  C         3.9427653186        2.6676020501       -3.7363267602
  C         4.1519774586       -1.5740159410       -4.1775749646
  C         3.2372304214       -0.8486699488       -5.0327548294
  C         5.3317707987       -2.4624021083       -1.6801984294
  C         4.4352953630       -3.3367427656       -2.4082755380
  C         6.0995769823       -0.1017612580       -0.1710494908
  C         5.8706440411       -1.3592760580        0.5128586343
  C         2.0068464582        5.7413882087       -1.7193919104
  C         0.8041478920        5.7534292193       -2.4943116947
  C         1.0497666340        5.0154062981       -3.6922687384
  C         2.4009749324        4.5513208367       -3.6624437641
  C         2.9921627267        4.9995864692       -2.4413645015
  C         1.9885085289        5.7795926003       -0.3227604512
  C         3.1140928589        5.1918747778        0.3789173593
  C        -0.4601363678        5.8020704936       -1.8998518085
  C        -0.5161047686        6.0205598096       -0.4712184079
  C         0.0410556796        4.2896786543       -4.3268282322
  C        -1.3142511770        4.4679020075       -3.8481002044
  C         2.7873887679        3.3554831111       -4.2749121822
  C         1.8105579078        2.6799513303       -5.1053294898
  C         3.9855576939        4.2636068427       -1.7904014189
  C         4.5468972355        3.1257782394       -2.4892435146
  C        -3.8477320426        4.3506919492       -2.5744892124
  C        -4.8577707577        3.6589674664       -1.8327421493
  C        -5.2258305725        2.4881422811       -2.5692794928
  C        -4.4366478360        2.4550769976       -3.7584503905
  C        -3.5873790960        3.6028695232       -3.7656166571
  C        -2.8376548027        5.0838275559       -1.9409147076
  C        -1.5713016099        5.2331001178       -2.6357951528
  C        -4.8866519751        3.6792548439       -0.4332670862
  C        -3.9760875845        4.5794851041        0.2480279711
  C        -5.6336758727        1.3122390154       -1.9349727474
  C        -5.8635981044        1.3616413082       -0.5072247575
  C        -4.0487506265        1.2522655179       -4.3498538539
  C        -4.6273700706        0.0299134425       -3.8397390118
  C        -2.3248191582        3.5693983563       -4.3611169477
  C        -1.9782576297        2.4106009021       -5.1588582312